<?xml version="1.0" encoding="UTF-8"?>

<!-- generated on 2024-12-29 15:10:57 by Eclipse SUMO netedit Version 1.21.0
<neteditConfiguration xmlns:xsi="http://www.w3.org/2001/XMLSchema-instance" xsi:noNamespaceSchemaLocation="http://sumo.dlr.de/xsd/neteditConfiguration.xsd">

    <input>
        <sumo-net-file value="C:\Users\hecto\GranVia\network.net.xml"/>
    </input>

    <output>
        <output-file value="C:\Users\hecto\GranVia\network.net.xml"/>
        <output.street-names value="true"/>
    </output>

    <processing>
        <geometry.min-radius.fix.railways value="false"/>
        <geometry.max-grade.fix value="false"/>
        <offset.disable-normalization value="true"/>
        <lefthand value="0"/>
    </processing>

    <junctions>
        <no-turnarounds value="true"/>
        <junctions.corner-detail value="5"/>
        <junctions.limit-turn-speed value="5.50"/>
        <rectangular-lane-cut value="0"/>
    </junctions>

    <pedestrian>
        <walkingareas value="0"/>
    </pedestrian>

</neteditConfiguration>
-->

<net version="1.20" junctionCornerDetail="5" limitTurnSpeed="5.50" xmlns:xsi="http://www.w3.org/2001/XMLSchema-instance" xsi:noNamespaceSchemaLocation="http://sumo.dlr.de/xsd/net_file.xsd">

    <location netOffset="-440134.02,-4474453.32" convBoundary="13.74,56.10,697.42,250.16" origBoundary="-3.705681,40.418565,-3.697290,40.420856" projParameter="+proj=utm +zone=30 +ellps=WGS84 +datum=WGS84 +units=m +no_defs"/>

    <type id="highway.living_street" priority="2" numLanes="1" speed="2.78" disallow="tram rail_urban rail rail_electric rail_fast ship container cable_car subway aircraft wheelchair scooter drone" oneway="0"/>
    <type id="highway.residential" priority="3" numLanes="1" speed="13.89" disallow="tram rail_urban rail rail_electric rail_fast ship container cable_car subway aircraft wheelchair scooter drone" oneway="0"/>
    <type id="highway.tertiary" priority="10" numLanes="1" speed="22.22" disallow="tram rail_urban rail rail_electric rail_fast ship container cable_car subway aircraft wheelchair scooter drone" oneway="0"/>

    <edge id=":12407768952_0" function="internal">
        <lane id=":12407768952_0_0" index="0" disallow="tram rail_urban rail rail_electric rail_fast ship container cable_car subway aircraft wheelchair scooter drone" speed="8.33" length="0.10" shape="528.74,126.03 528.74,126.03"/>
        <lane id=":12407768952_0_1" index="1" disallow="tram rail_urban rail rail_electric rail_fast ship container cable_car subway aircraft wheelchair scooter drone" speed="8.33" length="0.10" shape="527.59,123.04 527.59,123.04"/>
    </edge>
    <edge id=":12407768952_2" function="internal">
        <lane id=":12407768952_2_0" index="0" disallow="tram rail_urban rail rail_electric rail_fast ship container cable_car subway aircraft wheelchair scooter drone" speed="8.33" length="0.10" shape="525.28,117.07 525.28,117.07"/>
        <lane id=":12407768952_2_1" index="1" disallow="tram rail_urban rail rail_electric rail_fast ship container cable_car subway aircraft wheelchair scooter drone" speed="8.33" length="0.10" shape="526.43,120.06 526.43,120.06"/>
    </edge>
    <edge id=":12407768956_0" function="internal">
        <lane id=":12407768956_0_0" index="0" disallow="tram rail_urban rail rail_electric rail_fast ship container cable_car subway aircraft wheelchair scooter drone" speed="8.33" length="0.32" shape="622.77,89.89 622.46,90.01"/>
        <lane id=":12407768956_0_1" index="1" disallow="tram rail_urban rail rail_electric rail_fast ship container cable_car subway aircraft wheelchair scooter drone" speed="8.33" length="0.32" shape="621.60,86.92 621.31,87.03"/>
    </edge>
    <edge id=":12407768956_2" function="internal">
        <lane id=":12407768956_2_0" index="0" disallow="tram rail_urban rail rail_electric rail_fast ship container cable_car subway aircraft wheelchair scooter drone" speed="8.33" length="0.28" shape="619.02,81.05 619.27,80.96"/>
        <lane id=":12407768956_2_1" index="1" disallow="tram rail_urban rail rail_electric rail_fast ship container cable_car subway aircraft wheelchair scooter drone" speed="8.33" length="0.28" shape="620.17,84.04 620.43,83.94"/>
    </edge>
    <edge id=":12413405043_0" function="internal">
        <lane id=":12413405043_0_0" index="0" disallow="tram rail_urban rail rail_electric rail_fast ship container cable_car subway aircraft wheelchair scooter drone" speed="22.22" length="0.33" shape="83.19,190.24 82.84,190.27"/>
        <lane id=":12413405043_0_1" index="1" disallow="tram rail_urban rail rail_electric rail_fast ship container cable_car subway aircraft wheelchair scooter drone" speed="22.22" length="0.33" shape="82.85,187.06 82.54,187.09"/>
    </edge>
    <edge id=":12413405043_2" function="internal">
        <lane id=":12413405043_2_0" index="0" disallow="tram rail_urban rail rail_electric rail_fast ship container cable_car subway aircraft wheelchair scooter drone" speed="22.22" length="0.26" shape="81.95,180.71 82.18,180.69"/>
        <lane id=":12413405043_2_1" index="1" disallow="tram rail_urban rail rail_electric rail_fast ship container cable_car subway aircraft wheelchair scooter drone" speed="22.22" length="0.26" shape="82.24,183.90 82.52,183.87"/>
    </edge>
    <edge id=":12415675051_0" function="internal">
        <lane id=":12415675051_0_0" index="0" disallow="tram rail_urban rail rail_electric rail_fast ship container cable_car subway aircraft wheelchair scooter drone" speed="22.22" length="0.10" shape="249.78,173.89 249.78,173.89"/>
        <lane id=":12415675051_0_1" index="1" disallow="tram rail_urban rail rail_electric rail_fast ship container cable_car subway aircraft wheelchair scooter drone" speed="22.22" length="0.10" shape="249.47,170.70 249.47,170.70"/>
    </edge>
    <edge id=":12415675051_2" function="internal">
        <lane id=":12415675051_2_0" index="0" disallow="tram rail_urban rail rail_electric rail_fast ship container cable_car subway aircraft wheelchair scooter drone" speed="22.22" length="0.10" shape="248.84,164.33 248.84,164.33"/>
        <lane id=":12415675051_2_1" index="1" disallow="tram rail_urban rail rail_electric rail_fast ship container cable_car subway aircraft wheelchair scooter drone" speed="22.22" length="0.10" shape="249.15,167.52 249.15,167.52"/>
    </edge>
    <edge id=":25906392_0" function="internal">
        <lane id=":25906392_0_0" index="0" disallow="tram rail_urban rail rail_electric rail_fast ship container cable_car subway aircraft wheelchair scooter drone" speed="13.89" length="0.10" shape="640.79,128.84 640.79,128.84"/>
    </edge>
    <edge id=":25906409_0" function="internal">
        <lane id=":25906409_0_0" index="0" disallow="tram rail_urban rail rail_electric rail_fast ship container cable_car subway aircraft wheelchair scooter drone" speed="8.33" length="0.10" shape="522.11,173.03 522.08,172.95"/>
    </edge>
    <edge id=":25906409_1" function="internal">
        <lane id=":25906409_1_0" index="0" disallow="tram rail_urban rail rail_electric rail_fast ship container cable_car subway aircraft wheelchair scooter drone" speed="8.33" length="0.10" shape="525.12,171.93 525.09,171.85"/>
    </edge>
    <edge id=":3429367538_0" function="internal">
        <lane id=":3429367538_0_0" index="0" disallow="tram rail_urban rail rail_electric rail_fast ship container cable_car subway aircraft wheelchair scooter drone" speed="8.33" length="0.50" shape="357.80,164.62 357.22,164.65"/>
        <lane id=":3429367538_0_1" index="1" disallow="tram rail_urban rail rail_electric rail_fast ship container cable_car subway aircraft wheelchair scooter drone" speed="8.33" length="0.50" shape="357.54,161.43 357.13,161.45"/>
    </edge>
    <edge id=":3429367538_2" function="internal">
        <lane id=":3429367538_2_0" index="0" disallow="tram rail_urban rail rail_electric rail_fast ship container cable_car subway aircraft wheelchair scooter drone" speed="8.33" length="0.17" shape="356.95,155.06 357.03,155.05"/>
        <lane id=":3429367538_2_1" index="1" disallow="tram rail_urban rail rail_electric rail_fast ship container cable_car subway aircraft wheelchair scooter drone" speed="8.33" length="0.17" shape="357.04,158.26 357.29,158.24"/>
    </edge>
    <edge id=":3429417269_0" function="internal">
        <lane id=":3429417269_0_0" index="0" disallow="tram rail_urban rail rail_electric rail_fast ship container cable_car subway aircraft wheelchair scooter drone" speed="15.27" length="0.20" shape="343.67,165.04 343.57,165.05"/>
        <lane id=":3429417269_0_1" index="1" disallow="tram rail_urban rail rail_electric rail_fast ship container cable_car subway aircraft wheelchair scooter drone" speed="15.27" length="0.20" shape="343.58,161.84 343.28,161.86"/>
    </edge>
    <edge id=":3429417269_2" function="internal">
        <lane id=":3429417269_2_0" index="0" disallow="tram rail_urban rail rail_electric rail_fast ship container cable_car subway aircraft wheelchair scooter drone" speed="15.27" length="0.61" shape="342.69,155.49 343.39,155.45"/>
        <lane id=":3429417269_2_1" index="1" disallow="tram rail_urban rail rail_electric rail_fast ship container cable_car subway aircraft wheelchair scooter drone" speed="15.27" length="0.61" shape="342.98,158.68 343.49,158.64"/>
    </edge>
    <edge id=":942080443_0" function="internal">
        <lane id=":942080443_0_0" index="0" disallow="tram rail_urban rail rail_electric rail_fast ship container cable_car subway aircraft wheelchair scooter drone" speed="22.22" length="0.24" shape="168.59,181.71 168.38,181.73"/>
        <lane id=":942080443_0_1" index="1" disallow="tram rail_urban rail rail_electric rail_fast ship container cable_car subway aircraft wheelchair scooter drone" speed="22.22" length="0.24" shape="168.29,178.52 168.03,178.55"/>
    </edge>
    <edge id=":942080443_2" function="internal">
        <lane id=":942080443_2_0" index="0" disallow="tram rail_urban rail rail_electric rail_fast ship container cable_car subway aircraft wheelchair scooter drone" speed="22.22" length="0.34" shape="167.33,172.18 167.69,172.15"/>
        <lane id=":942080443_2_1" index="1" disallow="tram rail_urban rail rail_electric rail_fast ship container cable_car subway aircraft wheelchair scooter drone" speed="22.22" length="0.34" shape="167.68,175.37 167.99,175.33"/>
    </edge>
    <edge id=":Cruce1_0" function="internal">
        <lane id=":Cruce1_0_0" index="0" disallow="tram rail_urban rail rail_electric rail_fast ship container cable_car subway aircraft wheelchair scooter drone" speed="6.72" length="9.21" shape="79.36,190.60 76.98,191.18 75.30,192.41 74.32,194.29 74.04,196.82"/>
    </edge>
    <edge id=":Cruce1_1" function="internal">
        <lane id=":Cruce1_1_0" index="0" disallow="tram rail_urban rail rail_electric rail_fast ship container cable_car subway aircraft wheelchair scooter drone" speed="22.22" length="11.87" shape="79.36,190.60 67.56,191.75"/>
        <lane id=":Cruce1_1_1" index="1" disallow="tram rail_urban rail rail_electric rail_fast ship container cable_car subway aircraft wheelchair scooter drone" speed="22.22" length="11.87" shape="79.07,187.41 67.23,188.57"/>
    </edge>
    <edge id=":Cruce1_3" function="internal">
        <lane id=":Cruce1_3_0" index="0" disallow="tram rail_urban rail rail_electric rail_fast ship container cable_car subway aircraft wheelchair scooter drone" speed="8.50" length="15.79" shape="79.07,187.41 76.30,186.86 74.09,184.65 72.46,180.78 71.39,175.24"/>
    </edge>
    <edge id=":Cruce1_4" function="internal">
        <lane id=":Cruce1_4_0" index="0" disallow="tram rail_urban rail rail_electric rail_fast ship container cable_car subway aircraft wheelchair scooter drone" speed="6.67" length="9.68" shape="66.57,182.20 68.98,181.55 70.58,180.17 71.38,178.07 71.39,175.24"/>
    </edge>
    <edge id=":Cruce1_5" function="internal">
        <lane id=":Cruce1_5_0" index="0" disallow="tram rail_urban rail rail_electric rail_fast ship container cable_car subway aircraft wheelchair scooter drone" speed="22.22" length="11.94" shape="66.57,182.20 78.48,181.04"/>
        <lane id=":Cruce1_5_1" index="1" disallow="tram rail_urban rail rail_electric rail_fast ship container cable_car subway aircraft wheelchair scooter drone" speed="22.22" length="11.94" shape="66.90,185.38 78.77,184.22"/>
    </edge>
    <edge id=":Cruce1_7" function="internal">
        <lane id=":Cruce1_7_0" index="0" disallow="tram rail_urban rail rail_electric rail_fast ship container cable_car subway aircraft wheelchair scooter drone" speed="8.06" length="15.25" shape="66.90,185.38 69.90,185.83 72.10,187.89 73.48,191.55 74.04,196.82"/>
    </edge>
    <edge id=":Cruce2_0" function="internal">
        <lane id=":Cruce2_0_0" index="0" disallow="tram rail_urban rail rail_electric rail_fast ship container cable_car subway aircraft wheelchair scooter drone" speed="6.63" length="9.07" shape="156.07,183.08 153.78,183.69 152.18,184.95 151.30,186.86 151.12,189.41"/>
    </edge>
    <edge id=":Cruce2_1" function="internal">
        <lane id=":Cruce2_1_0" index="0" disallow="tram rail_urban rail rail_electric rail_fast ship container cable_car subway aircraft wheelchair scooter drone" speed="22.22" length="11.53" shape="156.07,183.08 144.58,184.27"/>
        <lane id=":Cruce2_1_1" index="1" disallow="tram rail_urban rail rail_electric rail_fast ship container cable_car subway aircraft wheelchair scooter drone" speed="22.22" length="11.53" shape="155.72,179.90 144.27,181.09"/>
    </edge>
    <edge id=":Cruce2_3" function="internal">
        <lane id=":Cruce2_3_0" index="0" disallow="tram rail_urban rail rail_electric rail_fast ship container cable_car subway aircraft wheelchair scooter drone" speed="8.04" length="10.09" shape="146.88,168.71 148.49,171.03 150.39,172.61 152.56,173.45 155.03,173.53"/>
    </edge>
    <edge id=":Cruce2_4" function="internal">
        <lane id=":Cruce2_4_0" index="0" disallow="tram rail_urban rail rail_electric rail_fast ship container cable_car subway aircraft wheelchair scooter drone" speed="8.34" length="21.22" shape="146.88,168.71 148.51,173.09 149.78,178.83 150.67,184.69 151.12,189.41"/>
    </edge>
    <edge id=":Cruce2_5" function="internal">
        <lane id=":Cruce2_5_0" index="0" disallow="tram rail_urban rail rail_electric rail_fast ship container cable_car subway aircraft wheelchair scooter drone" speed="7.45" length="15.88" shape="146.88,168.71 149.07,173.80 149.36,177.56 147.76,179.99 144.27,181.09"/>
    </edge>
    <edge id=":Cruce2_6" function="internal">
        <lane id=":Cruce2_6_0" index="0" disallow="tram rail_urban rail rail_electric rail_fast ship container cable_car subway aircraft wheelchair scooter drone" speed="22.22" length="11.45" shape="143.66,174.77 155.03,173.53"/>
        <lane id=":Cruce2_6_1" index="1" disallow="tram rail_urban rail rail_electric rail_fast ship container cable_car subway aircraft wheelchair scooter drone" speed="22.22" length="11.45" shape="143.97,177.96 155.38,176.71"/>
    </edge>
    <edge id=":Cruce3_0" function="internal">
        <lane id=":Cruce3_0_0" index="0" disallow="tram rail_urban rail rail_electric rail_fast ship container cable_car subway aircraft wheelchair scooter drone" speed="22.22" length="11.60" shape="198.13,178.86 186.58,180.01"/>
        <lane id=":Cruce3_0_1" index="1" disallow="tram rail_urban rail rail_electric rail_fast ship container cable_car subway aircraft wheelchair scooter drone" speed="22.22" length="11.60" shape="197.82,175.67 186.28,176.82"/>
    </edge>
    <edge id=":Cruce3_2" function="internal">
        <lane id=":Cruce3_2_0" index="0" disallow="tram rail_urban rail rail_electric rail_fast ship container cable_car subway aircraft wheelchair scooter drone" speed="5.80" length="9.20" shape="185.68,170.45 188.32,169.83 189.76,168.58 189.99,166.71 189.01,164.21"/>
    </edge>
    <edge id=":Cruce3_3" function="internal">
        <lane id=":Cruce3_3_0" index="0" disallow="tram rail_urban rail rail_electric rail_fast ship container cable_car subway aircraft wheelchair scooter drone" speed="22.22" length="11.57" shape="185.68,170.45 197.18,169.30"/>
        <lane id=":Cruce3_3_1" index="1" disallow="tram rail_urban rail rail_electric rail_fast ship container cable_car subway aircraft wheelchair scooter drone" speed="22.22" length="11.57" shape="185.98,173.64 197.50,172.49"/>
    </edge>
    <edge id=":Cruce4_0" function="internal">
        <lane id=":Cruce4_0_0" index="0" disallow="tram rail_urban rail rail_electric rail_fast ship container cable_car subway aircraft wheelchair scooter drone" speed="6.53" length="9.28" shape="226.61,182.14 226.10,179.57 224.93,177.81 223.10,176.86 220.62,176.70"/>
    </edge>
    <edge id=":Cruce4_1" function="internal">
        <lane id=":Cruce4_1_0" index="0" disallow="tram rail_urban rail rail_electric rail_fast ship container cable_car subway aircraft wheelchair scooter drone" speed="8.36" length="15.16" shape="226.61,182.14 226.64,176.71 227.48,172.75 229.15,170.26 231.63,169.24"/>
    </edge>
    <edge id=":Cruce4_2" function="internal">
        <lane id=":Cruce4_2_0" index="0" disallow="tram rail_urban rail rail_electric rail_fast ship container cable_car subway aircraft wheelchair scooter drone" speed="22.22" length="11.68" shape="232.26,175.61 220.62,176.70"/>
        <lane id=":Cruce4_2_1" index="1" disallow="tram rail_urban rail rail_electric rail_fast ship container cable_car subway aircraft wheelchair scooter drone" speed="22.22" length="11.68" shape="231.95,172.43 220.34,173.52"/>
    </edge>
    <edge id=":Cruce4_4" function="internal">
        <lane id=":Cruce4_4_0" index="0" disallow="tram rail_urban rail rail_electric rail_fast ship container cable_car subway aircraft wheelchair scooter drone" speed="6.46" length="9.08" shape="225.31,160.92 225.83,163.38 227.01,165.05 228.83,165.95 231.32,166.06"/>
    </edge>
    <edge id=":Cruce4_5" function="internal">
        <lane id=":Cruce4_5_0" index="0" disallow="tram rail_urban rail rail_electric rail_fast ship container cable_car subway aircraft wheelchair scooter drone" speed="8.24" length="14.89" shape="225.31,160.92 225.31,166.24 224.48,170.11 222.82,172.54 220.34,173.52"/>
    </edge>
    <edge id=":Cruce4_6" function="internal">
        <lane id=":Cruce4_6_0" index="0" disallow="tram rail_urban rail rail_electric rail_fast ship container cable_car subway aircraft wheelchair scooter drone" speed="22.22" length="11.61" shape="219.77,167.14 231.32,166.06"/>
        <lane id=":Cruce4_6_1" index="1" disallow="tram rail_urban rail rail_electric rail_fast ship container cable_car subway aircraft wheelchair scooter drone" speed="22.22" length="11.61" shape="220.05,170.33 231.63,169.24"/>
    </edge>
    <edge id=":Cruce5_0" function="internal">
        <lane id=":Cruce5_0_0" index="0" disallow="tram rail_urban rail rail_electric rail_fast ship container cable_car subway aircraft wheelchair scooter drone" speed="7.61" length="12.72" shape="296.52,169.36 292.25,170.10 289.26,171.43 287.57,173.36 287.17,175.88"/>
    </edge>
    <edge id=":Cruce5_1" function="internal">
        <lane id=":Cruce5_1_0" index="0" disallow="tram rail_urban rail rail_electric rail_fast ship container cable_car subway aircraft wheelchair scooter drone" speed="22.22" length="23.55" shape="296.52,169.36 273.09,171.59"/>
        <lane id=":Cruce5_1_1" index="1" disallow="tram rail_urban rail rail_electric rail_fast ship container cable_car subway aircraft wheelchair scooter drone" speed="22.22" length="23.55" shape="296.23,166.17 272.77,168.41"/>
    </edge>
    <edge id=":Cruce5_3" function="internal">
        <lane id=":Cruce5_3_0" index="0" disallow="tram rail_urban rail rail_electric rail_fast ship container cable_car subway aircraft wheelchair scooter drone" speed="11.75" length="21.48" shape="275.39,155.80 277.83,158.13 282.02,159.57 287.97,160.13 295.66,159.80"/>
    </edge>
    <edge id=":Cruce5_4" function="internal">
        <lane id=":Cruce5_4_0" index="0" disallow="tram rail_urban rail rail_electric rail_fast ship container cable_car subway aircraft wheelchair scooter drone" speed="9.72" length="23.39" shape="275.39,155.80 278.21,160.07 282.04,165.60 285.49,171.25 287.17,175.88"/>
    </edge>
    <edge id=":Cruce5_5" function="internal">
        <lane id=":Cruce5_5_0" index="0" disallow="tram rail_urban rail rail_electric rail_fast ship container cable_car subway aircraft wheelchair scooter drone" speed="7.50" length="16.29" shape="275.39,155.80 277.71,160.97 278.05,164.80 276.40,167.28 272.77,168.41"/>
    </edge>
    <edge id=":Cruce5_6" function="internal">
        <lane id=":Cruce5_6_0" index="0" disallow="tram rail_urban rail rail_electric rail_fast ship container cable_car subway aircraft wheelchair scooter drone" speed="22.22" length="23.61" shape="272.15,162.04 295.66,159.80"/>
        <lane id=":Cruce5_6_1" index="1" disallow="tram rail_urban rail rail_electric rail_fast ship container cable_car subway aircraft wheelchair scooter drone" speed="22.22" length="23.61" shape="272.46,165.22 295.95,162.99"/>
    </edge>
    <edge id=":Cruce6_0" function="internal">
        <lane id=":Cruce6_0_0" index="0" disallow="tram rail_urban rail rail_electric rail_fast ship container cable_car subway aircraft wheelchair scooter drone" speed="6.19" length="9.05" shape="389.72,161.90 387.27,162.54 385.74,163.80 385.13,165.69 385.46,168.21"/>
    </edge>
    <edge id=":Cruce6_1" function="internal">
        <lane id=":Cruce6_1_0" index="0" disallow="tram rail_urban rail rail_electric rail_fast ship container cable_car subway aircraft wheelchair scooter drone" speed="15.27" length="14.47" shape="389.72,161.90 375.31,163.21"/>
    </edge>
    <edge id=":Cruce6_2" function="internal">
        <lane id=":Cruce6_2_0" index="0" disallow="tram rail_urban rail rail_electric rail_fast ship container cable_car subway aircraft wheelchair scooter drone" speed="7.74" length="14.84" shape="389.37,158.72 385.34,159.76 382.83,161.84 381.84,164.94 382.37,169.07"/>
    </edge>
    <edge id=":Cruce6_3" function="internal">
        <lane id=":Cruce6_3_0" index="0" disallow="tram rail_urban rail rail_electric rail_fast ship container cable_car subway aircraft wheelchair scooter drone" speed="15.27" length="14.39" shape="389.37,158.72 375.04,160.02"/>
    </edge>
    <edge id=":Cruce6_4" function="internal">
        <lane id=":Cruce6_4_0" index="0" disallow="tram rail_urban rail rail_electric rail_fast ship container cable_car subway aircraft wheelchair scooter drone" speed="15.27" length="14.27" shape="374.48,153.64 388.66,152.35"/>
        <lane id=":Cruce6_4_1" index="1" disallow="tram rail_urban rail rail_electric rail_fast ship container cable_car subway aircraft wheelchair scooter drone" speed="15.27" length="14.27" shape="374.76,156.83 389.01,155.54"/>
    </edge>
    <edge id=":Cruce7_0" function="internal">
        <lane id=":Cruce7_0_0" index="0" disallow="tram rail_urban rail rail_electric rail_fast ship container cable_car subway aircraft wheelchair scooter drone" speed="6.49" length="9.03" shape="510.60,138.97 509.49,136.76 507.93,135.45 505.94,135.03 503.50,135.51"/>
    </edge>
    <edge id=":Cruce7_1" function="internal">
        <lane id=":Cruce7_1_0" index="0" disallow="tram rail_urban rail rail_electric rail_fast ship container cable_car subway aircraft wheelchair scooter drone" speed="7.27" length="11.15" shape="519.19,129.71 516.08,131.30 514.11,133.20 513.30,135.41 513.64,137.95"/>
    </edge>
    <edge id=":Cruce7_2" function="internal">
        <lane id=":Cruce7_2_0" index="0" disallow="tram rail_urban rail rail_electric rail_fast ship container cable_car subway aircraft wheelchair scooter drone" speed="15.27" length="16.67" shape="519.19,129.71 503.50,135.51"/>
        <lane id=":Cruce7_2_1" index="1" disallow="tram rail_urban rail rail_electric rail_fast ship container cable_car subway aircraft wheelchair scooter drone" speed="15.27" length="16.67" shape="518.04,126.73 502.45,132.48"/>
    </edge>
    <edge id=":Cruce7_4" function="internal">
        <lane id=":Cruce7_4_0" index="0" disallow="tram rail_urban rail rail_electric rail_fast ship container cable_car subway aircraft wheelchair scooter drone" speed="6.08" length="9.07" shape="509.26,116.98 509.99,119.44 511.32,120.89 513.23,121.33 515.73,120.76"/>
    </edge>
    <edge id=":Cruce7_5" function="internal">
        <lane id=":Cruce7_5_0" index="0" disallow="tram rail_urban rail rail_electric rail_fast ship container cable_car subway aircraft wheelchair scooter drone" speed="11.11" length="21.45" shape="509.26,116.98 510.33,123.76 511.39,129.40 512.48,134.07 513.64,137.95"/>
    </edge>
    <edge id=":Cruce7_6" function="internal">
        <lane id=":Cruce7_6_0" index="0" disallow="tram rail_urban rail rail_electric rail_fast ship container cable_car subway aircraft wheelchair scooter drone" speed="9.27" length="16.57" shape="506.10,117.44 506.59,123.29 506.14,127.75 504.76,130.82 502.45,132.48"/>
    </edge>
    <edge id=":Cruce7_7" function="internal">
        <lane id=":Cruce7_7_0" index="0" disallow="tram rail_urban rail rail_electric rail_fast ship container cable_car subway aircraft wheelchair scooter drone" speed="15.27" length="16.46" shape="500.34,126.44 515.73,120.76"/>
        <lane id=":Cruce7_7_1" index="1" disallow="tram rail_urban rail rail_electric rail_fast ship container cable_car subway aircraft wheelchair scooter drone" speed="15.27" length="16.46" shape="501.39,129.46 516.89,123.74"/>
    </edge>
    <edge id=":Cruce9_0" function="internal">
        <lane id=":Cruce9_0_0" index="0" disallow="tram rail_urban rail rail_electric rail_fast ship container cable_car subway aircraft wheelchair scooter drone" speed="6.00" length="9.08" shape="636.76,90.73 636.12,88.22 634.86,86.74 632.96,86.30 630.44,86.89"/>
    </edge>
    <edge id=":Cruce9_1" function="internal">
        <lane id=":Cruce9_1_0" index="0" disallow="tram rail_urban rail rail_electric rail_fast ship container cable_car subway aircraft wheelchair scooter drone" speed="9.00" length="14.62" shape="636.76,90.73 636.38,85.11 636.58,80.92 637.36,78.15 638.72,76.81"/>
    </edge>
    <edge id=":Cruce9_2" function="internal">
        <lane id=":Cruce9_2_0" index="0" disallow="tram rail_urban rail rail_electric rail_fast ship container cable_car subway aircraft wheelchair scooter drone" speed="8.33" length="11.35" shape="641.00,82.79 630.44,86.89"/>
        <lane id=":Cruce9_2_1" index="1" disallow="tram rail_urban rail rail_electric rail_fast ship container cable_car subway aircraft wheelchair scooter drone" speed="8.33" length="11.35" shape="639.86,79.80 629.27,83.91"/>
    </edge>
    <edge id=":Cruce9_4" function="internal">
        <lane id=":Cruce9_4_0" index="0" disallow="tram rail_urban rail rail_electric rail_fast ship container cable_car subway aircraft wheelchair scooter drone" speed="8.33" length="11.40" shape="626.94,77.95 637.58,73.82"/>
        <lane id=":Cruce9_4_1" index="1" disallow="tram rail_urban rail rail_electric rail_fast ship container cable_car subway aircraft wheelchair scooter drone" speed="8.33" length="11.40" shape="628.10,80.93 638.72,76.81"/>
    </edge>
    <edge id=":J1_0" function="internal">
        <lane id=":J1_0_0" index="0" disallow="tram rail_urban rail rail_electric rail_fast ship container cable_car subway aircraft wheelchair scooter drone" speed="22.22" length="0.30" shape="82.47,180.66 82.78,180.63"/>
        <lane id=":J1_0_1" index="1" disallow="tram rail_urban rail rail_electric rail_fast ship container cable_car subway aircraft wheelchair scooter drone" speed="22.22" length="0.30" shape="82.81,183.84 83.09,183.81"/>
    </edge>

    <edge id="-1238944954" from="cluster_1522690082_938516026" to="Cruce1" name="Gran Vía" priority="10" type="highway.tertiary" shape="19.91,191.73 44.45,189.32 72.43,186.42">
        <lane id="-1238944954_0" index="0" disallow="tram rail_urban rail rail_electric rail_fast ship container cable_car subway aircraft wheelchair scooter drone" speed="22.22" length="53.31" shape="13.54,187.53 43.97,184.54 66.57,182.20">
            <param key="origId" value="1238944954"/>
        </lane>
        <lane id="-1238944954_1" index="1" disallow="tram rail_urban rail rail_electric rail_fast ship container cable_car subway aircraft wheelchair scooter drone" speed="22.22" length="53.31" shape="13.85,190.72 44.29,187.73 66.90,185.38">
            <param key="origId" value="1238944954"/>
        </lane>
        <param key="origFrom" value="938516026"/>
        <param key="origTo" value="48842577"/>
    </edge>
    <edge id="-155551743#0" from="942080443" to="Cruce3" name="Gran Vía" priority="10" type="highway.tertiary" shape="168.00,176.94 186.13,175.23">
        <lane id="-155551743#0_0" index="0" disallow="tram rail_urban rail rail_electric rail_fast ship container cable_car subway aircraft wheelchair scooter drone" speed="22.22" length="18.07" shape="167.69,172.15 185.68,170.45">
            <param key="origId" value="155551743"/>
        </lane>
        <lane id="-155551743#0_1" index="1" disallow="tram rail_urban rail rail_electric rail_fast ship container cable_car subway aircraft wheelchair scooter drone" speed="22.22" length="18.07" shape="167.99,175.33 185.98,173.64">
            <param key="origId" value="155551743"/>
        </lane>
        <param key="origTo" value="25907103"/>
    </edge>
    <edge id="-155551743#1" from="Cruce2" to="942080443" name="Gran Vía" priority="10" type="highway.tertiary" shape="149.30,178.99 168.00,176.94">
        <lane id="-155551743#1_0" index="0" disallow="tram rail_urban rail rail_electric rail_fast ship container cable_car subway aircraft wheelchair scooter drone" speed="22.22" length="12.38" shape="155.03,173.53 167.33,172.18">
            <param key="origId" value="155551743"/>
        </lane>