<?xml version="1.0" encoding="UTF-8"?>

<!-- generated on 2024-12-29 15:11:40.899943 by randomTrips.py v1_21_0+0000-d7b3b481c43
<configuration>
    <net-file value="network.net.xml"/>
    <route-file value="network.rou.xml"/>
    <length value="True"/>
    <end value="20000.0"/>
</configuration>
-->

<!-- generated on 2024-12-29 15:11:40 by Eclipse SUMO duarouter Version 1.21.0
<duarouterConfiguration xmlns:xsi="http://www.w3.org/2001/XMLSchema-instance" xsi:noNamespaceSchemaLocation="http://sumo.dlr.de/xsd/duarouterConfiguration.xsd">

    <input>
        <net-file value="network.net.xml"/>
        <route-files value="trips.trips.xml"/>
    </input>

    <output>
        <output-file value="network.rou.xml"/>
        <alternatives-output value="NUL"/>
    </output>

    <time>
        <begin value="0"/>
        <end value="20000.0"/>
    </time>

    <report>
        <no-warnings value="true"/>
        <ignore-errors value="true"/>
        <no-step-log value="true"/>
    </report>

</duarouterConfiguration>
-->

<routes xmlns:xsi="http://www.w3.org/2001/XMLSchema-instance" xsi:noNamespaceSchemaLocation="http://sumo.dlr.de/xsd/routes_file.xsd">
    <vehicle id="7" depart="7.00">
        <route edges="419119406#1"/>
    </vehicle>
    <vehicle id="9" depart="9.00">
        <route edges="48557945#3 -155551743#1 -155551743#0"/>
    </vehicle>
    <vehicle id="12" depart="12.00">
        <route edges="688424906#3 936883629 155551743#0 155551743#1 155551743#2 155551743#3 1238944954"/>
    </vehicle>
    <vehicle id="13" depart="13.00">
        <route edges="-32597088"/>
    </vehicle>
    <vehicle id="14" depart="14.00">
        <route edges="5930467#0 5930467#1 -419119406#2 -419119406#1 -419119406#0 -32597088 43410312#0 43410312#1 651613048#0 423000381#0"/>
    </vehicle>
    <vehicle id="17" depart="17.00">
        <route edges="-651613048#0 -43410312#1 -43410312#0 32597088 419119406#0 419119406#1"/>
    </vehicle>
    <vehicle id="18" depart="18.00">
        <route edges="5930467#0 5930467#1 -419119406#2 -419119406#1 -419119406#0 -32597088 43410312#0 43410312#1 651613048#0 423000381#0 423000381#1"/>
    </vehicle>
    <vehicle id="19" depart="19.00">
        <route edges="5930467#1 419119406#3"/>
    </vehicle>
    <vehicle id="22" depart="22.00">
        <route edges="-155551743#2.0 -155551743#1 -155551743#0 -936883629 -423000381#1"/>
    </vehicle>
    <vehicle id="26" depart="26.00">
        <route edges="-419119406#3 -419119406#2 -419119406#1 -419119406#0 -32597088 43410312#0 43410312#1 651613048#0 423000381#0 423000381#1 936883629 155551743#0 155551743#1 7971563#1"/>
    </vehicle>
    <vehicle id="28" depart="28.00">
        <route edges="-419119406#1 -419119406#0 4487807#1"/>
    </vehicle>
    <vehicle id="29" depart="29.00">
        <route edges="-32597088 43410312#0 43410312#1 651613048#0 423000381#0 423000381#1 936883629 155551743#0 155551743#1 155551743#2"/>
    </vehicle>
    <vehicle id="32" depart="32.00">
        <route edges="5930467#0 5930467#1"/>
    </vehicle>
    <vehicle id="35" depart="35.00">
        <route edges="-419119406#1 -419119406#0 -32597088 43410312#0 43410312#1 651613048#0 423000381#0 423000381#1 936883629 155551743#0 155551743#1 7971563#1"/>
    </vehicle>
    <vehicle id="38" depart="38.00">
        <route edges="688424906#3 -423000381#1 -423000381#0 -651613048#0 -43410312#1 -43410312#0 32597088"/>
    </vehicle>
    <vehicle id="44" depart="44.00">
        <route edges="-155551743#3 -155551743#2 -155551743#2.0"/>
    </vehicle>
    <vehicle id="45" depart="45.00">
        <route edges="-32597088 43410312#0 43410312#1 651613048#0 423000381#0 423000381#1"/>
    </vehicle>
    <vehicle id="46" depart="46.00">
        <route edges="48557945#3 -155551743#1 -155551743#0 -936883629 -423000381#1 -423000381#0 -651613048#0 -43410312#1 -43410312#0 32597088"/>
    </vehicle>
    <vehicle id="52" depart="52.00">
        <route edges="-419119406#3 -419119406#2 -419119406#1 -419119406#0 -32597088 43410312#0 43410312#1 651613048#0 4328802#1"/>
    </vehicle>
    <vehicle id="63" depart="63.00">
        <route edges="-1238944954 -155551743#3 -155551743#2 -155551743#2.0 -155551743#1 -155551743#0 7732072#1"/>
    </vehicle>
    <vehicle id="64" depart="64.00">
        <route edges="5930467#1 -419119406#2 -419119406#1 -419119406#0 -32597088 43410312#0 43410312#1 651613048#0 423000381#0 423000381#1 936883629 155551743#0 155551743#1 155551743#2 155551743#3 7732071#1"/>
    </vehicle>
    <vehicle id="66" depart="66.00">
        <route edges="5930467#1 -419119406#2 -419119406#1 -419119406#0 -32597088 43410312#0 43410312#1 651613048#0 423000381#0 423000381#1 936883629 155551743#0 155551743#1 7971563#1"/>
    </vehicle>
    <vehicle id="67" depart="67.00">
        <route edges="-155551743#2.0 -155551743#1 -155551743#0 -936883629 -423000381#1 -423000381#0 -651613048#0 -43410312#1 -43410312#0 32597088"/>
    </vehicle>
    <vehicle id="82" depart="82.00">
        <route edges="5930467#1 -419119406#2 -419119406#1 -419119406#0 -32597088"/>
    </vehicle>
    <vehicle id="83" depart="83.00">
        <route edges="-419119406#2 -419119406#1 -419119406#0 -32597088 43410312#0"/>
    </vehicle>
    <vehicle id="84" depart="84.00">
        <route edges="-419119406#1 -419119406#0 -32597088"/>
    </vehicle>
    <vehicle id="85" depart="85.00">
        <route edges="688424906#3 -423000381#1 -423000381#0 -651613048#0 -43410312#1 -43410312#0 32597088 419119406#0 419119406#1 419119406#2 419119406#3"/>
    </vehicle>
    <vehicle id="91" depart="91.00">
        <route edges="7642926#1 -32597088"/>
    </vehicle>
    <vehicle id="99" depart="99.00">
        <route edges="936883629 155551743#0 155551743#1 155551743#2 155551743#3 7732071#1"/>
    </vehicle>
    <vehicle id="101" depart="101.00">
        <route edges="5930467#0 5930467#1 -419119406#2 -419119406#1"/>
    </vehicle>
    <vehicle id="107" depart="107.00">
        <route edges="688424906#3 936883629 155551743#0 155551743#1 155551743#2 155551743#3 E0"/>
    </vehicle>
    <vehicle id="110" depart="110.00">
        <route edges="7642926#1 419119406#0 419119406#1 419119406#2 419119406#3"/>
    </vehicle>
    <vehicle id="112" depart="112.00">
        <route edges="-155551743#2.0 -155551743#1 -155551743#0 -936883629 -423000381#1 -423000381#0 -651613048#0 -43410312#1 -43410312#0 32597088 419119406#0 419119406#1 419119406#2 419119406#3"/>
    </vehicle>
    <vehicle id="114" depart="114.00">
        <route edges="-32597088 43410312#0 43410312#1 651613048#0 423000381#0 423000381#1 936883629 155551743#0 155551743#1 7971563#1"/>
    </vehicle>
    <vehicle id="117" depart="117.00">
        <route edges="-419119406#2 -419119406#1 -419119406#0 -32597088"/>
    </vehicle>
    <vehicle id="122" depart="122.00">
        <route edges="-419119406#1 -419119406#0 4487807#1"/>
    </vehicle>
    <vehicle id="123" depart="123.00">
        <route edges="-419119406#3 -419119406#2 -419119406#1 -419119406#0 -32597088 43410312#0 43410312#1 651613048#0 423000381#0 423000381#1 936883629 155551743#0 155551743#1 155551743#2"/>
    </vehicle>
    <vehicle id="126" depart="126.00">
        <route edges="-155551743#2.0 -155551743#1 -155551743#0 -936883629 -423000381#1 -423000381#0 -651613048#0 -43410312#1 -43410312#0 32597088"/>
    </vehicle>
    <vehicle id="127" depart="127.00">
        <route edges="936883629 155551743#0 155551743#1 155551743#2 155551743#3 E0"/>
    </vehicle>
    <vehicle id="128" depart="128.00">
        <route edges="-155551743#2.0 -155551743#1 -155551743#0 -936883629 -423000381#1 -423000381#0"/>
    </vehicle>
    <vehicle id="129" depart="129.00">
        <route edges="-419119406#3 -419119406#2 -419119406#1 -419119406#0 -32597088 43410312#0 43410312#1 651613048#0 423000381#0 423000381#1 936883629 155551743#0 155551743#1 7971563#1"/>
    </vehicle>
    <vehicle id="132" depart="132.00">
        <route edges="5930467#0 5930467#1 -419119406#2 -419119406#1 -419119406#0 -32597088 4487679#1"/>
    </vehicle>
    <vehicle id="135" depart="135.00">
        <route edges="48557945#3 -155551743#1 -155551743#0 -936883629 -423000381#1 -423000381#0 -651613048#0"/>
    </vehicle>
    <vehicle id="136" depart="136.00">
        <route edges="423000381#0 423000381#1 936883629 155551743#0 155551743#1 7971563#1"/>
    </vehicle>
    <vehicle id="137" depart="137.00">
        <route edges="-32597088"/>
    </vehicle>
    <vehicle id="139" depart="139.00">
        <route edges="-419119406#3 -419119406#2 -419119406#1 -419119406#0 -32597088 43410312#0 43410312#1 651613048#0 423000381#0"/>
    </vehicle>
    <vehicle id="143" depart="143.00">
        <route edges="5930467#0 5930467#1 -419119406#2 -419119406#1 -419119406#0 -32597088"/>
    </vehicle>
    <vehicle id="147" depart="147.00">
        <route edges="424852628#1 -651613048#0 -43410312#1 -43410312#0 32597088 419119406#0 419119406#1"/>
    </vehicle>
    <vehicle id="149" depart="149.00">
        <route edges="-155551743#2.0 -155551743#1 -155551743#0 7732072#1"/>
    </vehicle>
    <vehicle id="151" depart="151.00">
        <route edges="5930467#0 5930467#1 419119406#3"/>
    </vehicle>
    <vehicle id="152" depart="152.00">
        <route edges="-32597088"/>
    </vehicle>
    <vehicle id="154" depart="154.00">
        <route edges="48557945#3 -155551743#1 -155551743#0 7732072#1"/>
    </vehicle>
    <vehicle id="156" depart="156.00">
        <route edges="-419119406#3 -419119406#2 -419119406#1 -419119406#0 -32597088"/>
    </vehicle>
    <vehicle id="159" depart="159.00">
        <route edges="-32597088 43410312#0 43410312#1 651613048#0 423000381#0 423000381#1 936883629 155551743#0 155551743#1 7971563#1"/>
    </vehicle>
    <vehicle id="160" depart="160.00">
        <route edges="5930467#1 -419119406#2 -419119406#1 -419119406#0 -32597088 43410312#0 43410312#1 651613048#0 423000381#0 423000381#1 936883629"/>
    </vehicle>
    <vehicle id="161" depart="161.00">
        <route edges="48557945#3 -155551743#1 -155551743#0 7732072#1"/>
    </vehicle>
    <vehicle id="163" depart="163.00">
        <route edges="-4487807#1 -32597088 43410312#0 43410312#1 651613048#0 423000381#0 423000381#1 936883629 155551743#0 155551743#1 7971563#1"/>
    </vehicle>
    <vehicle id="164" depart="164.00">
        <route edges="48557945#3 -155551743#1 -155551743#0 7732072#1"/>
    </vehicle>
    <vehicle id="168" depart="168.00">
        <route edges="-419119406#1 -419119406#0 -32597088 43410312#0 43410312#1 651613048#0"/>
    </vehicle>
    <vehicle id="170" depart="170.00">
        <route edges="48557945#3 -155551743#1 -155551743#0 -936883629 -423000381#1"/>
    </vehicle>
    <vehicle id="175" depart="175.00">
        <route edges="7642926#1 419119406#0 419119406#1"/>
    </vehicle>
    <vehicle id="181" depart="181.00">
        <route edges="419119406#1"/>
    </vehicle>
    <vehicle id="182" depart="182.00">
        <route edges="-651613048#0 -43410312#1 -43410312#0 32597088 419119406#0 419119406#1 419119406#2 419119406#3"/>
    </vehicle>
    <vehicle id="183" depart="183.00">
        <route edges="-419119406#3 -419119406#2 -419119406#1 -419119406#0 -32597088 4487679#1"/>
    </vehicle>
    <vehicle id="184" depart="184.00">
        <route edges="-1238944954 -155551743#3 -155551743#2 -155551743#2.0 -155551743#1 -155551743#0 7732072#1"/>
    </vehicle>
    <vehicle id="187" depart="187.00">
        <route edges="-4487807#2 -4487807#1 -32597088"/>
    </vehicle>
    <vehicle id="188" depart="188.00">
        <route edges="423000381#0 423000381#1 936883629 155551743#0 155551743#1 155551743#2 155551743#3 1238944954"/>
    </vehicle>
    <vehicle id="190" depart="190.00">
        <route edges="424852628#1 -651613048#0"/>
    </vehicle>
    <vehicle id="192" depart="192.00">
        <route edges="-936883629 -423000381#1 -423000381#0 -651613048#0"/>
    </vehicle>
    <vehicle id="195" depart="195.00">
        <route edges="651613048#0 423000381#0"/>
    </vehicle>
    <vehicle id="196" depart="196.00">
        <route edges="-423000381#1 -423000381#0 -651613048#0 -43410312#1 -43410312#0 32597088 419119406#0 419119406#1"/>
    </vehicle>
    <vehicle id="197" depart="197.00">
        <route edges="-1238944954 -155551743#3 -155551743#2 -155551743#2.0 -155551743#1 -155551743#0 -936883629 -423000381#1 -423000381#0 -651613048#0"/>
    </vehicle>
    <vehicle id="203" depart="203.00">
        <route edges="-155551743#2.0 -155551743#1 -155551743#0 -936883629 -423000381#1 -423000381#0 -651613048#0 -43410312#1 -43410312#0 32597088 419119406#0 419119406#1"/>
    </vehicle>
    <vehicle id="209" depart="209.00">
        <route edges="5930467#0 5930467#1 -419119406#2 -419119406#1 -419119406#0 -32597088"/>
    </vehicle>
    <vehicle id="211" depart="211.00">
        <route edges="-419119406#1 -419119406#0 -32597088 4487679#1"/>
    </vehicle>
    <vehicle id="216" depart="216.00">
        <route edges="-419119406#1 -419119406#0 -32597088 43410312#0 43410312#1 651613048#0 423000381#0 423000381#1 936883629 155551743#0 155551743#1 7971563#1"/>
    </vehicle>
    <vehicle id="218" depart="218.00">
        <route edges="-419119406#3 -419119406#2 -419119406#1 -419119406#0 -32597088 43410312#0 43410312#1 651613048#0 423000381#0 423000381#1 936883629 155551743#0 155551743#1 155551743#2 155551743#3 7732071#1"/>
    </vehicle>
    <vehicle id="220" depart="220.00">
        <route edges="423000381#0 423000381#1 936883629 155551743#0 155551743#1 155551743#2 155551743#3 E0"/>
    </vehicle>
    <vehicle id="222" depart="222.00">
        <route edges="651613048#0 423000381#0"/>
    </vehicle>
    <vehicle id="223" depart="223.00">
        <route edges="424852628#1 -651613048#0 -43410312#1 -43410312#0 32597088 419119406#0 419119406#1"/>
    </vehicle>
    <vehicle id="227" depart="227.00">
        <route edges="-419119406#3 -419119406#2 -419119406#1 -419119406#0 -32597088 43410312#0 43410312#1 651613048#0 4328802#1"/>
    </vehicle>
    <vehicle id="230" depart="230.00">
        <route edges="-155551743#2.0 -155551743#1 -155551743#0 -936883629 -423000381#1 -423000381#0 -651613048#0"/>
    </vehicle>
    <vehicle id="233" depart="233.00">
        <route edges="-419119406#1 -419119406#0 -32597088 4487679#1"/>
    </vehicle>
    <vehicle id="235" depart="235.00">
        <route edges="-936883629 -423000381#1 -423000381#0 -651613048#0 -43410312#1 -43410312#0 32597088 419119406#0 419119406#1"/>
    </vehicle>
    <vehicle id="239" depart="239.00">
        <route edges="5930467#0 5930467#1"/>
    </vehicle>
    <vehicle id="242" depart="242.00">
        <route edges="5930467#0 5930467#1 -419119406#2 -419119406#1 -419119406#0 -32597088 43410312#0 43410312#1 651613048#0 423000381#0 423000381#1 936883629 155551743#0 155551743#1 7971563#1"/>
    </vehicle>
    <vehicle id="247" depart="247.00">
        <route edges="-4487807#1 -32597088 4487679#1"/>
    </vehicle>
    <vehicle id="251" depart="251.00">
        <route edges="-651613048#0 -43410312#1 -43410312#0 32597088 419119406#0 419119406#1 419119406#2 419119406#3"/>
    </vehicle>
    <vehicle id="255" depart="255.00">
        <route edges="-419119406#1 -419119406#0 -32597088 43410312#0 43410312#1 651613048#0 423000381#0 423000381#1 936883629 155551743#0 155551743#1 155551743#2 155551743#3 1238944954"/>
    </vehicle>
    <vehicle id="256" depart="256.00">
        <route edges="43410312#1 651613048#0 423000381#0 423000381#1 936883629 155551743#0 155551743#1 155551743#2"/>
    </vehicle>
    <vehicle id="257" depart="257.00">
        <route edges="43410312#0 43410312#1 651613048#0 423000381#0 423000381#1 936883629 155551743#0 155551743#1 155551743#2 155551743#3 7732071#1"/>
    </vehicle>
    <vehicle id="258" depart="258.00">
        <route edges="-419119406#3 -419119406#2 -419119406#1 -419119406#0 -32597088"/>
    </vehicle>
    <vehicle id="259" depart="259.00">
        <route edges="-1238944954 -155551743#3 -155551743#2 -155551743#2.0 -155551743#1 -155551743#0 -936883629 -423000381#1 -423000381#0 -651613048#0 -43410312#1 -43410312#0 32597088 419119406#0 419119406#1"/>
    </vehicle>
    <vehicle id="260" depart="260.00">
        <route edges="936883629 155551743#0 155551743#1 155551743#2 155551743#3 1238944954"/>
    </vehicle>
    <vehicle id="265" depart="265.00">
        <route edges="-32597088 43410312#0 43410312#1"/>
    </vehicle>
    <vehicle id="266" depart="266.00">
        <route edges="32865074#0 -423000381#1 -423000381#0"/>
    </vehicle>
    <vehicle id="268" depart="268.00">
        <route edges="-419119406#0 -32597088 43410312#0 43410312#1 651613048#0 423000381#0"/>
    </vehicle>
    <vehicle id="270" depart="270.00">
        <route edges="48557945#3 7971563#1"/>
    </vehicle>
    <vehicle id="273" depart="273.00">
        <route edges="688424906#3 936883629 155551743#0 155551743#1 155551743#2"/>
    </vehicle>
    <vehicle id="275" depart="275.00">
        <route edges="424852628#1 423000381#0 423000381#1"/>
    </vehicle>
    <vehicle id="277" depart="277.00">
        <route edges="5930467#0 5930467#1 419119406#3"/>
    </vehicle>
    <vehicle id="278" depart="278.00">
        <route edges="-32597088 43410312#0 43410312#1 651613048#0 423000381#0 423000381#1 936883629 155551743#0 155551743#1 155551743#2 155551743#3 E0"/>
    </vehicle>
    <vehicle id="280" depart="280.00">
        <route edges="155551743#1"/>
    </vehicle>
    <vehicle id="282" depart="282.00">
        <route edges="5930467#0 5930467#1 -419119406#2 -419119406#1 -419119406#0 -32597088 43410312#0 43410312#1 651613048#0 423000381#0 423000381#1 936883629 155551743#0 155551743#1 155551743#2 155551743#3 7732071#1"/>
    </vehicle>
    <vehicle id="283" depart="283.00">
        <route edges="-32597088 43410312#0 43410312#1 651613048#0 423000381#0 423000381#1 936883629 155551743#0 155551743#1 7971563#1"/>
    </vehicle>
    <vehicle id="285" depart="285.00">
        <route edges="424852628#1 -651613048#0 -43410312#1 -43410312#0 32597088"/>
    </vehicle>
    <vehicle id="286" depart="286.00">
        <route edges="424852628#1 423000381#0 423000381#1 936883629 155551743#0 155551743#1 7971563#1"/>
    </vehicle>
    <vehicle id="287" depart="287.00">
        <route edges="-419119406#3 -419119406#2 -419119406#1 -419119406#0 -32597088 43410312#0 43410312#1 651613048#0"/>
    </vehicle>
    <vehicle id="288" depart="288.00">
        <route edges="32597088"/>
    </vehicle>
    <vehicle id="290" depart="290.00">
        <route edges="-419119406#3 -419119406#2 -419119406#1 -419119406#0 -32597088 43410312#0 43410312#1 651613048#0 423000381#0 423000381#1 936883629 155551743#0 155551743#1 155551743#2 155551743#3 7732071#1"/>
    </vehicle>
    <vehicle id="291" depart="291.00">
        <route edges="5930467#0 5930467#1 -419119406#2 -419119406#1 -419119406#0 -32597088"/>
    </vehicle>
    <vehicle id="295" depart="295.00">
        <route edges="5930467#0 5930467#1 -419119406#2 -419119406#1"/>
    </vehicle>
    <vehicle id="296" depart="296.00">
        <route edges="-419119406#1 -419119406#0 -32597088 43410312#0 43410312#1 651613048#0"/>
    </vehicle>
    <vehicle id="302" depart="302.00">
        <route edges="424852628#1 4328802#1"/>
    </vehicle>
    <vehicle id="305" depart="305.00">
        <route edges="424852628#1 -651613048#0"/>
    </vehicle>
    <vehicle id="306" depart="306.00">
        <route edges="32865074#0 -423000381#1 -423000381#0 -651613048#0 -43410312#1 -43410312#0 32597088"/>
    </vehicle>
    <vehicle id="307" depart="307.00">
        <route edges="32597088"/>
    </vehicle>
    <vehicle id="308" depart="308.00">
        <route edges="424852628#1 423000381#0 423000381#1 936883629 155551743#0 155551743#1 155551743#2 155551743#3 1238944954"/>
    </vehicle>
    <vehicle id="310" depart="310.00">
        <route edges="-419119406#3 -419119406#2 -419119406#1 -419119406#0 -32597088"/>
    </vehicle>
    <vehicle id="311" depart="311.00">
        <route edges="-419119406#1 -419119406#0 -32597088"/>
    </vehicle>
    <vehicle id="315" depart="315.00">
        <route edges="7642926#1 419119406#0 419119406#1"/>
    </vehicle>
    <vehicle id="320" depart="320.00">
        <route edges="7642926#1 419119406#0 419119406#1"/>
    </vehicle>
    <vehicle id="323" depart="323.00">
        <route edges="5930467#1 419119406#3"/>
    </vehicle>
    <vehicle id="326" depart="326.00">
        <route edges="688424906#3 -423000381#1 -423000381#0 -651613048#0 -43410312#1 -43410312#0 32597088"/>
    </vehicle>
    <vehicle id="327" depart="327.00">
        <route edges="48557945#3 155551743#2"/>
    </vehicle>
    <vehicle id="330" depart="330.00">
        <route edges="32865074#0 -423000381#1 -423000381#0 -651613048#0"/>
    </vehicle>
    <vehicle id="332" depart="332.00">
        <route edges="43410312#1 651613048#0 423000381#0"/>
    </vehicle>
    <vehicle id="333" depart="333.00">
        <route edges="48557945#3 -155551743#1 -155551743#0 -936883629 -423000381#1"/>
    </vehicle>
    <vehicle id="334" depart="334.00">
        <route edges="32597088"/>
    </vehicle>
    <vehicle id="338" depart="338.00">
        <route edges="424852628#1 423000381#0 423000381#1 936883629 155551743#0 155551743#1 7971563#1"/>
    </vehicle>
    <vehicle id="341" depart="341.00">
        <route edges="-419119406#1 -419119406#0 -32597088"/>
    </vehicle>
    <vehicle id="342" depart="342.00">
        <route edges="-1238944954 -155551743#3 -155551743#2 -155551743#2.0 -155551743#1 -155551743#0 -936883629 -423000381#1 -423000381#0 -651613048#0 -43410312#1 -43410312#0 32597088"/>
    </vehicle>
    <vehicle id="344" depart="344.00">
        <route edges="-419119406#1 -419119406#0 -32597088 4487679#1"/>
    </vehicle>
    <vehicle id="345" depart="345.00">
        <route edges="424852628#1 -651613048#0 -43410312#1 -43410312#0 32597088"/>
    </vehicle>
    <vehicle id="351" depart="351.00">
        <route edges="5930467#0 5930467#1 -419119406#2 -419119406#1 -419119406#0 -32597088"/>
    </vehicle>
    <vehicle id="356" depart="356.00">
        <route edges="688424906#3 -423000381#1 -423000381#0 -651613048#0 -43410312#1 -43410312#0 32597088 419119406#0 419119406#1"/>
    </vehicle>
    <vehicle id="358" depart="358.00">
        <route edges="-155551743#0 -936883629 -423000381#1 -423000381#0 -651613048#0 -43410312#1 -43410312#0 32597088"/>
    </vehicle>
    <vehicle id="361" depart="361.00">
        <route edges="5930467#0 5930467#1 419119406#3"/>
    </vehicle>
    <vehicle id="362" depart="362.00">
        <route edges="688424906#3 936883629 155551743#0 155551743#1 155551743#2 155551743#3 E0"/>
    </vehicle>
    <vehicle id="369" depart="369.00">
        <route edges="-4487807#2 -4487807#1 -32597088 43410312#0 43410312#1 651613048#0 423000381#0 423000381#1 936883629 155551743#0 155551743#1 155551743#2 155551743#3 1238944954"/>
    </vehicle>
    <vehicle id="371" depart="371.00">
        <route edges="-4487807#1 -32597088 4487679#1"/>
    </vehicle>
    <vehicle id="373" depart="373.00">
        <route edges="48557945#3 -155551743#1 -155551743#0 -936883629 -423000381#1 -423000381#0 -651613048#0 -43410312#1 -43410312#0 32597088 419119406#0 419119406#1"/>
    </vehicle>
    <vehicle id="375" depart="375.00">
        <route edges="-4487807#1 -32597088 43410312#0 43410312#1 651613048#0 423000381#0 423000381#1 936883629"/>
    </vehicle>
    <vehicle id="376" depart="376.00">
        <route edges="-936883629 -423000381#1 -423000381#0 -651613048#0 -43410312#1 -43410312#0 32597088 419119406#0 419119406#1"/>
    </vehicle>
    <vehicle id="379" depart="379.00">
        <route edges="-419119406#1 -419119406#0 -32597088 43410312#0 43410312#1 651613048#0 423000381#0 423000381#1 936883629 155551743#0"/>
    </vehicle>
    <vehicle id="380" depart="380.00">
        <route edges="43410312#0 43410312#1 651613048#0 423000381#0 423000381#1"/>
    </vehicle>
    <vehicle id="384" depart="384.00">
        <route edges="-32597088 43410312#0 43410312#1 651613048#0 423000381#0 423000381#1 936883629"/>
    </vehicle>
    <vehicle id="391" depart="391.00">
        <route edges="424852628#1 -651613048#0 -43410312#1 -43410312#0 32597088 419119406#0 419119406#1"/>
    </vehicle>
    <vehicle id="392" depart="392.00">
        <route edges="-419119406#3 -419119406#2 -419119406#1 -419119406#0 -32597088 43410312#0 43410312#1 651613048#0 423000381#0 423000381#1 936883629 155551743#0 155551743#1 155551743#2 155551743#3 7732071#1"/>
    </vehicle>
    <vehicle id="394" depart="394.00">
        <route edges="32865074#0 936883629 155551743#0 155551743#1 155551743#2"/>
    </vehicle>
    <vehicle id="395" depart="395.00">
        <route edges="688424906#3 -423000381#1 -423000381#0 -651613048#0 -43410312#1 -43410312#0 32597088 419119406#0 419119406#1"/>
    </vehicle>
    <vehicle id="397" depart="397.00">
        <route edges="-419119406#3 -419119406#2 -419119406#1 -419119406#0 -32597088 43410312#0 43410312#1 651613048#0"/>
    </vehicle>
    <vehicle id="400" depart="400.00">
        <route edges="-423000381#0 -651613048#0"/>
    </vehicle>
    <vehicle id="401" depart="401.00">
        <route edges="32865074#0 936883629 155551743#0 155551743#1 155551743#2 155551743#3 E0"/>
    </vehicle>
    <vehicle id="404" depart="404.00">
        <route edges="32865074#0 -423000381#1 -423000381#0 -651613048#0 -43410312#1 -43410312#0 32597088 419119406#0 419119406#1"/>
    </vehicle>
    <vehicle id="405" depart="405.00">
        <route edges="155551743#2 155551743#3 1238944954"/>
    </vehicle>
    <vehicle id="406" depart="406.00">
        <route edges="-419119406#1 -419119406#0 -32597088 4487679#1"/>
    </vehicle>
    <vehicle id="407" depart="407.00">
        <route edges="32865074#0 -423000381#1"/>
    </vehicle>
    <vehicle id="410" depart="410.00">
        <route edges="48557945#3 155551743#2"/>
    </vehicle>
    <vehicle id="411" depart="411.00">
        <route edges="423000381#0 423000381#1 936883629 155551743#0 155551743#1 155551743#2 155551743#3 7732071#1"/>
    </vehicle>
    <vehicle id="412" depart="412.00">
        <route edges="7642926#1 419119406#0 419119406#1"/>
    </vehicle>
    <vehicle id="413" depart="413.00">
        <route edges="-155551743#0 -936883629 -423000381#1 -423000381#0 -651613048#0 -43410312#1 -43410312#0 32597088 419119406#0 419119406#1"/>
    </vehicle>
    <vehicle id="416" depart="416.00">
        <route edges="32597088"/>
    </vehicle>
    <vehicle id="417" depart="417.00">
        <route edges="424852628#1 423000381#0 423000381#1 936883629 155551743#0 155551743#1 155551743#2"/>
    </vehicle>
    <vehicle id="420" depart="420.00">
        <route edges="-4487807#1 -32597088 4487679#1"/>
    </vehicle>
    <vehicle id="427" depart="427.00">
        <route edges="688424906#3 936883629 155551743#0 155551743#1 155551743#2 155551743#3 E0"/>
    </vehicle>
    <vehicle id="428" depart="428.00">
        <route edges="424852628#1 -651613048#0 -43410312#1 -43410312#0 32597088"/>
    </vehicle>
    <vehicle id="429" depart="429.00">
        <route edges="-32597088 43410312#0 43410312#1 651613048#0 4328802#1"/>
    </vehicle>
    <vehicle id="436" depart="436.00">
        <route edges="-419119406#0 -32597088"/>
    </vehicle>
    <vehicle id="437" depart="437.00">
        <route edges="5930467#1 -419119406#2 -419119406#1 -419119406#0 -32597088 43410312#0 43410312#1 651613048#0 423000381#0 423000381#1"/>
    </vehicle>
    <vehicle id="446" depart="446.00">
        <route edges="-419119406#3 -419119406#2 -419119406#1 -419119406#0 -32597088 43410312#0 43410312#1 651613048#0 423000381#0 423000381#1 936883629 155551743#0 155551743#1 155551743#2 155551743#3 7732071#1"/>
    </vehicle>
    <vehicle id="447" depart="447.00">
        <route edges="-419119406#1 -419119406#0 -32597088 43410312#0 43410312#1 651613048#0 423000381#0 423000381#1 936883629 155551743#0 155551743#1 155551743#2"/>
    </vehicle>
    <vehicle id="449" depart="449.00">
        <route edges="32865074#0 -423000381#1 -423000381#0 -651613048#0 -43410312#1 -43410312#0 32597088 419119406#0 419119406#1 419119406#2 419119406#3"/>
    </vehicle>
    <vehicle id="451" depart="451.00">
        <route edges="7642926#1 -32597088 43410312#0"/>
    </vehicle>
    <vehicle id="466" depart="466.00">
        <route edges="-419119406#1 -419119406#0 -32597088"/>
    </vehicle>
    <vehicle id="472" depart="472.00">
        <route edges="-4487807#1 -32597088"/>
    </vehicle>
    <vehicle id="475" depart="475.00">
        <route edges="424852628#1 423000381#0 423000381#1 936883629"/>
    </vehicle>
    <vehicle id="476" depart="476.00">
        <route edges="7642926#1 -32597088 43410312#0 43410312#1 651613048#0"/>
    </vehicle>
    <vehicle id="477" depart="477.00">
        <route edges="-4487807#2 -4487807#1 -32597088 43410312#0 43410312#1 651613048#0"/>
    </vehicle>
    <vehicle id="478" depart="478.00">
        <route edges="-1238944954 -155551743#3 -155551743#2 -155551743#2.0 -155551743#1 -155551743#0 -936883629 -423000381#1 -423000381#0 -651613048#0 -43410312#1 -43410312#0 32597088 419119406#0 419119406#1"/>
    </vehicle>
    <vehicle id="481" depart="481.00">
        <route edges="48557945#3 7971563#1"/>
    </vehicle>
    <vehicle id="483" depart="483.00">
        <route edges="-1238944954 -155551743#3 -155551743#2 -155551743#2.0 -155551743#1 -155551743#0 7732072#1"/>
    </vehicle>
    <vehicle id="485" depart="485.00">
        <route edges="-419119406#1 -419119406#0 -32597088"/>
    </vehicle>
    <vehicle id="486" depart="486.00">
        <route edges="48557945#3 -155551743#1 -155551743#0 7732072#1"/>
    </vehicle>
    <vehicle id="488" depart="488.00">
        <route edges="-32597088 43410312#0 43410312#1 651613048#0 423000381#0 423000381#1 936883629 155551743#0 155551743#1 7971563#1"/>
    </vehicle>
    <vehicle id="489" depart="489.00">
        <route edges="-43410312#0 32597088 419119406#0"/>
    </vehicle>
    <vehicle id="493" depart="493.00">